14
Coordinates from ORCA-job orca E -307.900751287796
  C           1.46706012244493      0.00000000000000     -0.64552057151941
  C           0.71546672145643     -0.00000000000000     -1.82325719918382
  C          -0.71546672145643      0.00000000000000     -1.82325719918382
  C          -1.46706012244493      0.00000000000000     -0.64552057151941
  C          -0.73462102673009     -0.00000000000000      0.54910757229711
  C           0.73462102673009      0.00000000000000      0.54910757229711
  C           0.74182285864481     -0.00000000000000      1.97915366202557
  C          -0.74182285864481      0.00000000000000      1.97915366202557
  H           2.55986169258084      0.00000000000000     -0.67312522406354
  H           1.23057557107061      0.00000000000000     -2.78780885839374
  H          -1.23057557107061     -0.00000000000000     -2.78780885839374
  H          -2.55986169258084      0.00000000000000     -0.67312522406354
  H           1.51034487687697      0.00000000000000      2.75214848569820
  H          -1.51034487687697     -0.00000000000000      2.75214848569820