24
Coordinates from ORCA-job orca E -463.570897394652
  C          -2.36440528583201      1.36509002824849      0.00000000000000
  C          -1.36509002824849      2.36440528583201      0.00000000000000
  C          -0.00000000000000      2.73018005649697      0.00000000000000
  C           1.36509002824849      2.36440528583201      0.00000000000000
  C           2.36440528583201      1.36509002824849      0.00000000000000
  C           2.73018005649697      0.00000000000000      0.00000000000000
  C          -2.73018005649697     -0.00000000000000      0.00000000000000
  C          -2.36440528583201     -1.36509002824849      0.00000000000000
  C          -1.36509002824849     -2.36440528583201      0.00000000000000
  C           0.00000000000000     -2.73018005649697      0.00000000000000
  C           1.36509002824849     -2.36440528583201      0.00000000000000
  C           2.36440528583201     -1.36509002824849      0.00000000000000
  H          -1.91305047817204      3.31350062563791     -0.00000000000000
  H           0.00000000000000      3.82610095634408     -0.00000000000000
  H           1.91305047817204      3.31350062563791     -0.00000000000000
  H           3.31350062563791      1.91305047817204     -0.00000000000000
  H           3.31350062563791     -1.91305047817204     -0.00000000000000
  H           3.82610095634408     -0.00000000000000     -0.00000000000000
  H          -0.00000000000000     -3.82610095634408     -0.00000000000000
  H           1.91305047817204     -3.31350062563791     -0.00000000000000
  H          -3.31350062563791     -1.91305047817204     -0.00000000000000
  H          -1.91305047817204     -3.31350062563791     -0.00000000000000
  H          -3.31350062563791      1.91305047817204     -0.00000000000000
  H          -3.82610095634408      0.00000000000000     -0.00000000000000