32
Coordinates from ORCA-job orca E -618.604425544969
  C          -6.60725228228903      2.54418983307712     -0.00002692760413
  C          -5.45004128904638      3.28084664971245     -0.00003483272889
  C          -4.00112888753204      3.53556865284937     -0.00002091204081
  C          -2.66208903248460      3.23792725616084     -0.00000003810353
  C          -1.45749892059875      2.39345848768677      0.00002291524699
  C          -7.45150493298700      1.33949477879497     -0.00000123049003
  C          -0.72103074287299      1.23612790678952      0.00003141848148
  C          -0.46625173957001     -0.21259728696205      0.00002356274218
  C          -7.74885562644555      0.00035351961024      0.00002326392574
  C          -7.49418497405491     -1.44840700085162      0.00003654754987
  C          -6.75761801028844     -2.60566878513180      0.00002845125700
  C          -5.55307364561022     -3.45019540464759      0.00000054834095
  C          -4.21399450174726     -3.74773742966935     -0.00002376985124
  C          -2.76508002147612     -3.49310144017797     -0.00003593396117
  C          -1.60790531314745     -2.75646254030318     -0.00002620969399
  C          -0.76365131371023     -1.55173715165995      0.00000172857943
  H          -7.37310292518292      3.30975832894884     -0.00005545319758
  H          -5.81925431258166      4.29884321054721     -0.00006433397336
  H          -8.43237693575507      1.79837242177055      0.00000204668364
  H          -8.83176397537856      0.00016265676639      0.00004047449915
  H          -8.51213926076797     -1.81778282720893      0.00006470190579
  H          -7.52307923051839     -3.37163426352759      0.00005542005655
  H          -6.01189230201680     -4.43107993030055     -0.00000508341675
  H          -4.21371897941809     -4.83062461775356     -0.00004457113698
  H          -2.39591246709542     -4.51111291168078     -0.00006797717123
  H          -0.84200568022158     -3.52198325835303     -0.00005059912954
  H           0.61665102649647     -0.21241052746757      0.00004545650489
  H           0.21722917760960     -2.01059502580382      0.00001057011250
  H          -0.69204308480894      3.15941865107614      0.00004754380557
  H           0.29692157889206      1.60552868170254      0.00005759361852
  H          -4.00146244475448      4.61845350599221     -0.00003370833901
  H          -2.20325895063722      4.21881586001416     -0.00000066247200