16
Coordinates from ORCA-job orca E -309.501313755293
  C          -3.77035148023631      2.27284952692077     -0.65138360078538
  C          -4.81937183021428      1.44559850484262     -0.67123547109961
  C          -4.99144409388778      0.19805384532408      0.08505577419627
  C          -4.16490443365179     -0.85074395517558      0.12684396816849
  C          -2.88327025691975     -1.01040632833517     -0.57358812647263
  C          -2.53574460856838      2.13573809630134      0.13282149296371
  C          -1.70935322113117      1.08683369687469      0.17595954685678
  C          -1.83460157966897     -0.18297120563537     -0.55234587455059
  H          -3.85348368113661      3.19796941682872     -1.21581650019888
  H          -5.68647818214296      1.75245355947668     -1.25026759944968
  H          -2.23788488125483      3.02846233847016      0.67661153290406
  H          -0.79408616181881      1.19578900880594      0.75186792333333
  H          -2.76601341455534     -1.95110086858374     -1.10528985488273
  H          -0.93362448853482     -0.50540588218753     -1.06774053465313
  H          -5.94118205677378      0.10593477557654      0.60541016605556
  H          -4.49644562950436     -1.72641452950416      0.67874715761441