9
Coordinates from ORCA-job orca E -354.687210353012
  C          -6.73207515576806      1.57802119984103      0.02246786712220
  C          -6.44163723826211      0.18406254932406      0.02236747812331
  C          -5.72367872315068      2.49582897910007     -0.15922128996593
  C          -5.15054277559742     -0.25461577930348     -0.15915257295916
  H          -7.75768851060015      1.89451350545467      0.21859900375590
  H          -7.25562951381194     -0.51564774027105      0.21815868677765
  Mg         -3.99842355621605      1.42043965711386      0.63478623416609
  H          -5.94927236200311      3.53044013458342     -0.39910178999251
  H          -4.94444216459042     -1.29331250584259     -0.39890361702754
