14
Coordinates from ORCA-job orca E -308.286522099747
  C          -0.88614522793767      0.25569494227762     -0.00000013842503
  C          -0.03775165105768     -0.92696967752144      0.00000009174878
  C           1.35940407641486     -0.46292464466407      0.00000014896249
  C           1.32677589577136      0.88722471388273     -0.00000009631256
  C          -0.09396800049799      1.34921804602356     -0.00000046043267
  C          -0.82992124361934     -2.02050641137341      0.00000013880462
  C          -2.25069084635921     -1.55846763126693     -0.00000103950971
  C          -2.28330936021627     -0.20834006401423      0.00000022645780
  H           2.24059897144184     -1.08503629993256      0.00000085865206
  H           2.17790860239757      1.55094539795362      0.00000002899818
  H          -0.39363326605160      2.38781130796959     -0.00000156307211
  H          -0.53026728490151     -3.05907307981457      0.00000046655892
  H          -3.10182016008511     -2.22214072981949     -0.00000192732247
  H          -3.16450050529924      0.41375413029959      0.00000326489171