24
Energy:     222.8106633
C         -5.68229        1.52684       -0.00000
C         -4.80839        2.64997        0.00000
C         -3.58125        3.14559        0.00000
C         -2.17591        2.95070       -0.00000
C         -1.13081        2.13857       -0.00000
C         -0.59322        0.82562        0.00000
C         -5.85969        0.21537       -0.00000
C         -5.32141       -1.09727        0.00000
C         -4.27415       -1.90660        0.00000
C         -2.86866       -2.10075       -0.00000
C         -1.64276       -1.60173       -0.00000
C         -0.77423       -0.48549        0.00000
H         -5.50239        3.51050        0.00000
H         -3.68379        4.24642        0.00000
H         -1.77749        3.98196       -0.00000
H         -0.23010        2.77975       -0.00000
H          0.23155       -0.94483        0.00000
H          0.49891        0.99754        0.00000
H         -2.76468       -3.20142       -0.00000
H         -0.94962       -2.46320       -0.00000
H         -6.22104       -1.73987        0.00000
H         -4.67092       -2.93856        0.00000
H         -6.68736        1.98725       -0.00000
H         -6.95161        0.04200       -0.00000
