32
Energy:     456.8183275
C         -6.52629        2.41511        0.00000
C         -5.39900        3.09976        0.00000
C         -3.99878        3.34268       -0.00000
C         -2.70188        3.07579       -0.00000
C         -1.51676        2.29418        0.00000
C         -7.37462        1.27709       -0.00000
C         -0.78381        1.19258        0.00000
C         -0.53264       -0.20314       -0.00000
C         -7.68227       -0.00971       -0.00000
C         -7.43287       -1.40572        0.00000
C         -6.69844       -2.50621        0.00000
C         -5.51390       -3.28905       -0.00000
C         -4.21675       -3.55411       -0.00000
C         -2.81626       -3.31325        0.00000
C         -1.68547       -2.62449        0.00000
C         -0.84218       -1.48948       -0.00000
H         -7.30339        3.21112        0.00000
H         -5.75877        4.15250        0.00000
H         -8.36942        1.77416       -0.00000
H         -8.79428       -0.01163       -0.00000
H         -8.47704       -1.78815        0.00000
H         -7.46244       -3.31443        0.00000
H         -5.97398       -4.30180       -0.00000
H         -4.20183       -4.66648       -0.00000
H         -2.45538       -4.36550        0.00000
H         -0.90971       -3.42181        0.00000
H          0.57934       -0.20107       -0.00000
H          0.15340       -1.98529       -0.00000
H         -0.75252        3.10211        0.00000
H          0.26045        1.57492        0.00000
H         -4.01332        4.45502       -0.00000
H         -2.24156        4.08849       -0.00000
