16
	Energy:      45.2502057
C         -3.70349        2.12937       -0.78811
C         -4.72388        1.38914       -0.65422
C         -5.02721        0.25235       -0.02925
C         -4.31958       -0.78626        0.02632
C         -2.69465       -1.24221       -0.61267
C         -2.43620        2.26503       -0.03146
C         -1.68620        1.22005        0.20333
C         -1.66690       -0.39693       -0.55766
H         -4.18487        3.45521       -0.27907
H         -5.92851        2.06848       -0.31370
H         -1.99940        3.20581       -0.06627
H         -0.61211        1.46157       -0.03610
H         -2.60130       -2.11514       -0.24091
H         -0.85762       -0.72714       -0.20644
H         -6.18194       -0.12081       -0.14928
H         -4.79438       -1.86588       -0.11886
