12
Coordinates from ORCA-job orca E -456.134474970303
  C          -1.77481903383127      1.77481903383127     -0.00000000000000
  C          -0.64962885350240      2.42444788733367     -0.00000000000000
  C           0.64962885350240      2.42444788733367     -0.00000000000000
  C           1.77481903383127      1.77481903383127     -0.00000000000000
  C           2.42444788733367      0.64962885350240     -0.00000000000000
  C           1.77481903383127     -1.77481903383127     -0.00000000000000
  C           0.64962885350240     -2.42444788733367     -0.00000000000000
  C          -0.64962885350240     -2.42444788733367     -0.00000000000000
  C          -1.77481903383127     -1.77481903383127     -0.00000000000000
  C          -2.42444788733367      0.64962885350240     -0.00000000000000
  C          -2.42444788733367     -0.64962885350240     -0.00000000000000
  C           2.42444788733367     -0.64962885350240     -0.00000000000000