16
Coordinates from ORCA-job orca E -608.307887681782
  C           0.64712402142710     -3.25331214922377     -0.00000000000000
  C          -0.64712402142710     -3.25331214922377     -0.00000000000000
  C           1.84285329821290     -2.75802486585253     -0.00000000000000
  C           2.75802486585253     -1.84285329821290     -0.00000000000000
  C           3.25331214922377     -0.64712402142710     -0.00000000000000
  C          -1.84285329821290     -2.75802486585253     -0.00000000000000
  C          -2.75802486585253     -1.84285329821290     -0.00000000000000
  C          -3.25331214922377     -0.64712402142710     -0.00000000000000
  C          -3.25331214922377      0.64712402142710     -0.00000000000000
  C          -2.75802486585253      1.84285329821290     -0.00000000000000
  C          -1.84285329821290      2.75802486585253     -0.00000000000000
  C          -0.64712402142710      3.25331214922377     -0.00000000000000
  C           0.64712402142710      3.25331214922377     -0.00000000000000
  C           1.84285329821290      2.75802486585253     -0.00000000000000
  C           3.25331214922377      0.64712402142710     -0.00000000000000
  C           2.75802486585253      1.84285329821290     -0.00000000000000