9
Coordinates from ORCA-job orca E -180.165052222845
  C          -9.31582698665823      0.71953593254245     -0.00000074995216
  C          -8.84465194797768     -0.69361309266176     -0.00000096235967
  C          -8.57292294360129      1.85312335267254      0.00000313140685
  C          -7.57005561744638     -1.15444271928548      0.00000154264906
  H          -9.68303060013614     -1.39890280072667     -0.00000202651581
  H         -10.40972088435618      0.78059287466963     -0.00000222260513
  Ba         -6.14386923782711      0.99261291805282     -0.00000439262679
  H          -9.16991130238366      2.76846928626077      0.00000244173325
  H          -7.49809047961329     -2.24492575152430      0.00000323827040
