14
Coordinates from ORCA-job orca E -308.234120398704
  C          -3.60699071167678      2.17021287844788      0.00000336671296
  C          -4.66072144003256      1.26492577970250      0.00000746647407
  C          -4.46009966313409     -0.14529401262358     -0.00000290469616
  C          -3.19580889267943     -0.72104030661675      0.00000392239606
  C          -2.12238478513869      0.16709433854056      0.00000003943494
  C          -2.32859557411713      1.61641036838385      0.00000106916389
  C          -0.92018244613667      1.82377067604686     -0.00000599707254
  C          -0.71204861514523      0.36074578404362     -0.00000007942058
  H          -3.78652169167653      3.23738227941308     -0.00000531224647
  H          -5.67811632227735      1.63393437264712      0.00001014784775
  H          -5.33431337715186     -0.78328714175987     -0.00001558526858
  H          -3.07086836114520     -1.79596939094478      0.00000126074727
  H          -0.27032534004174      2.68405515183279     -0.00000450262285
  H           0.15193722035327     -0.28418077711329      0.00000710855022