16
Coordinates from ORCA-job orca E -609.022008195542
  C           0.67578490770445     -3.23123135291699      0.00001495037483
  C          -0.67581578214722     -3.23124413008347     -0.00000725788274
  C           1.80695822134579     -2.76271147598746      0.00002519890655
  C           2.76268837415189     -1.80696255826001      0.00002043255504
  C           3.23118306301307     -0.67578544230968      0.00000589546972
  C          -1.80699217539450     -2.76274950655439     -0.00002164368199
  C          -2.76272741146536     -1.80700516945118     -0.00002235077194
  C          -3.23121031154451     -0.67582057128480     -0.00001369969282
  C          -3.23118946046108      0.67578589873994      0.00000407532202
  C          -2.76268629761301      1.80696434107020      0.00001860751134
  C          -1.80695382042015      2.76271164102789      0.00002653419145
  C          -0.67578694078598      3.23123337352183      0.00001719688371
  C           0.67581447623387      3.23124695524391     -0.00000752679798
  C           1.80699770175989      2.76275358455729     -0.00002242063290
  C           3.23120465431855      0.67581267614041     -0.00001379043548
  C           2.76273080130429      1.80700173654652     -0.00002420131882