32
Coordinates from ORCA-job orca E -618.593066942946
  C          -6.61923349039228      2.51974689193944      0.00005509677571
  C          -5.42312590175028      3.28076773092003     -0.00005419814873
  C          -4.02649248111040      3.52635057543510     -0.00013838499746
  C          -2.64242916176564      3.21897592645363     -0.00013878522888
  C          -1.48121463134278      2.40538138448303     -0.00005544494020
  C          -7.43348204106027      1.35873021837259      0.00013944846291
  C          -0.71973208053250      1.20923153910999      0.00005421751570
  C          -0.47405944731830     -0.18691786837670      0.00013988117134
  C          -7.74093950408067     -0.02504567000171      0.00014006774234
  C          -7.49537489167885     -1.42154836762335      0.00005577344302
  C          -6.73393937562466     -2.61755136548220     -0.00005503349268
  C          -5.57293413797030     -3.43121879812924     -0.00014067563480
  C          -4.18848297152036     -3.73859718179657     -0.00014035924541
  C          -2.79232427972503     -3.49320231420977     -0.00005423569967
  C          -1.59568976559852     -2.73180089542438      0.00005672042116
  C          -0.78174856051614     -1.57122338066804      0.00014108469230
  H          -7.36746384311091      3.30229123782609      0.00009396507760
  H          -5.81497658557043      4.29010307259309     -0.00009364427631
  H          -8.42412443367266      1.79569155410803      0.00025984910891
  H          -8.82339806078035     -0.00121396771305      0.00025925734391
  H          -8.50459456103057     -1.81368824436327      0.00009492114269
  H          -7.51626586661086     -3.36603168513700     -0.00009526353692
  H          -6.00918839172197     -4.42217201833000     -0.00026272652173
  H          -4.21259471032676     -4.82105467825633     -0.00026187694969
  H          -2.40008463383106     -4.50239797060921     -0.00009280750755
  H          -0.84770711698415     -3.51460779744476      0.00009801481599
  H           0.60839952068849     -0.21106267275406      0.00025814102079
  H           0.20904994834611     -2.00789319975895      0.00026135793517
  H          -0.69892114080529      3.15388299358847     -0.00009812872961
  H           0.28943845211052      1.60158266379648      0.00009155689194
  H          -4.00269839512049      4.60879501676591     -0.00025638494099
  H          -2.20603745959259      4.20988727068671     -0.00026140371085