32
Coordinates from ORCA-job orca E -617.917255359971
  C          -2.58005229718158      2.58005229718158      0.00000000000000
  C          -1.39631424140791      3.37100077894168      0.00000000000000
  C          -0.00000000000000      3.64874495030606      0.00000000000000
  C           1.39631424140791      3.37100077894168      0.00000000000000
  C           2.58005229718158      2.58005229718158      0.00000000000000
  C          -3.37100077894168      1.39631424140791      0.00000000000000
  C           3.37100077894168      1.39631424140791      0.00000000000000
  C           3.64874495030606      0.00000000000000      0.00000000000000
  C          -3.64874495030606     -0.00000000000000      0.00000000000000
  C          -3.37100077894168     -1.39631424140791      0.00000000000000
  C          -2.58005229718158     -2.58005229718158      0.00000000000000
  C          -1.39631424140791     -3.37100077894168      0.00000000000000
  C           0.00000000000000     -3.64874495030606      0.00000000000000
  C           1.39631424140791     -3.37100077894168      0.00000000000000
  C           2.58005229718158     -2.58005229718158      0.00000000000000
  C           3.37100077894168     -1.39631424140791      0.00000000000000
  H          -3.35477932769745      3.35477932769745      0.00000000000000
  H          -1.81559348900094      4.38323042490236      0.00000000000000
  H          -4.38323042490236      1.81559348900094      0.00000000000000
  H          -4.74437442399863     -0.00000000000000      0.00000000000000
  H          -4.38323042490236     -1.81559348900094      0.00000000000000
  H          -3.35477932769745     -3.35477932769745      0.00000000000000
  H          -1.81559348900094     -4.38323042490236      0.00000000000000
  H           0.00000000000000     -4.74437442399863      0.00000000000000
  H           1.81559348900094     -4.38323042490236      0.00000000000000
  H           3.35477932769745     -3.35477932769745      0.00000000000000
  H           4.74437442399863      0.00000000000000      0.00000000000000
  H           4.38323042490236     -1.81559348900094      0.00000000000000
  H           3.35477932769745      3.35477932769745      0.00000000000000
  H           4.38323042490236      1.81559348900094      0.00000000000000
  H          -0.00000000000000      4.74437442399863      0.00000000000000
  H           1.81559348900094      4.38323042490236      0.00000000000000