8
Coordinates from ORCA-job orca E -154.627943720921
  C           1.01575272635155     -0.00000001277915      0.00000011971704
  C           0.00000011307059      1.01575370679373     -0.00000029889446
  C          -1.01575237942000     -0.00000015398183      0.00000035590132
  C           0.00000095569805     -1.01575310784758     -0.00000017949877
  H           2.09371923119101     -0.00000126376536      0.00000067124784
  H          -0.00000072792838      2.09372059198303     -0.00000058631836
  H          -2.09372110538908      0.00000110659851      0.00000055970058
  H           0.00000118642625     -2.09372086700135     -0.00000064185520