8
Coordinates from ORCA-job orca E -154.637107705432
  C           1.02677682473215      0.08669209583020      0.00000007029951
  C           0.08669058491940      1.02677806101781     -0.00000011088248
  C          -1.02677817361601     -0.08669045108888     -0.00000003421221
  C          -0.08669224339723     -1.02677663330582     -0.00000008764795
  H           2.10604433957542      0.08667234447030      0.00000019915752
  H           0.08667185085176      2.10604118555353     -0.00000014069769
  H          -2.10604070911194     -0.08667205925871      0.00000025215036
  H          -0.08667247395356     -2.10604454321842     -0.00000014816707