10
Coordinates from ORCA-job orca E -193.096847656612
  C          -2.04390304414845      0.82980895379771      0.11274845118636
  C          -1.34359779118117     -0.31174482000107      0.01657652740496
  C           0.18339478442179      0.05884575612703      0.01403754533902
  C           0.28258983279502      1.39431244009115      0.10901501319198
  C          -1.07117367038661      1.89669714911736      0.17209773242459
  H          -1.32632003416430      2.94886242382809      0.25440002956632
  H           0.97923162091847     -0.66905588649726     -0.05401259947841
  H           1.17364192217685      1.99922087115160      0.13571010820477
  H          -3.11305596939953      0.95863902524182      0.14274103149029
  H          -1.71760765103207     -1.32349591285644     -0.04938383932988
