14
Coordinates from ORCA-job orca E -308.053884851733
  C          -6.95678260180453      0.41846608391741      0.03761483940460
  C          -7.78413253300685     -0.80404465802999      0.00808145294116
  C          -5.63762808209490      0.06448218197945     -0.00676267016386
  C          -5.65462501494565     -1.36207937132656     -0.06210370998617
  C          -6.96416945491643     -1.90244997943520     -0.05186945422817
  C          -1.53959247913325      1.58211470758611     -0.08775442043544
  C          -0.24321831749366      2.13910546823911     -0.04168566054914
  C          -0.35471720830032      0.82541391124355      0.04576960525717
  H           0.36923725710736      3.02657041972067     -0.05156944174273
  H           0.09754564818517     -0.14719289665165      0.15712011296866
  H          -7.35015515842217      1.42443688599181      0.08308422646223
  H          -8.86482049343461     -0.81410648550144      0.04105699611949
  H          -7.24605720801846     -2.94182883529839     -0.05874766446319
  H          -4.76919435372154      0.70336256756511     -0.01223421158462