9
Coordinates from ORCA-job orca E -354.747570560230
  C          -6.63685809676299      1.64301083795087     -0.00000034452997
  C          -6.32843927603802      0.16252398480963     -0.00000016017233
  C          -5.73575231088214      2.64095589980728     -0.00000212493616
  C          -5.10376697526681     -0.39251066767365      0.00000164840898
  H          -7.70724645402076      1.85461202388783      0.00000197427023
  H          -7.22531144414909     -0.45888897683859     -0.00000195539298
  Mg         -4.11236768907809      1.39662998210274     -0.00000016514557
  H          -6.08681324854235      3.66454197795867      0.00000078988930
  H          -5.01683450525971     -1.47114506200478      0.00000033760850
