5
Coordinates from ORCA-job orca E -152.398011376279
  C          -3.88653544300983     -0.95482706583060      0.00001238635948
  C          -2.47418014326624     -0.89221293669414      0.00000143268492
  O          -3.23364432008850      0.27802766800961     -0.00000070967102
  H          -4.91462942028932     -1.24056983173606      0.00001966286970
  H          -1.42484067334610     -1.08589783374881     -0.00001277224309