14
Coordinates from ORCA-job orca E -308.272858023500
  C          -0.89782063335082      0.26426325016767     -0.00000001432155
  C          -0.02608174894897     -0.93552575482782     -0.00000003214519
  C           1.30449387024872     -0.49586539319985      0.00000005452880
  C           1.26933327379918      0.92221351526801     -0.00000001103926
  C          -0.06850216900486      1.39386517526791     -0.00000008977683
  C          -0.85540140077196     -2.06512968445172     -0.00000012704389
  C          -2.19323911415992     -1.59347283423515     -0.00000004823144
  C          -2.22839714630141     -0.17539183940614     -0.00000004507563
  H           2.19679125104917     -1.10164879966868      0.00000069966698
  H           2.14368352492816      1.55746925151074     -0.00000009355042
  H          -0.36887706074719      2.42969122640174     -0.00000047928062
  H          -0.55503430893535     -3.10094721520383     -0.00000054356162
  H          -3.06757893158454     -2.22871706100598      0.00000005341426
  H          -3.12068940622021      0.43038616338310      0.00000067641641