5
Coordinates from ORCA-job orca E -475.447032569633
  C          -1.27107637590401     -1.89420564060404     -0.00000028224316
  C          -0.00166019202731     -1.83131141277879     -0.00000001586234
  S          -0.72251079029655     -0.12177489500295      0.00000006649360
  H           0.96863574882276     -2.28905184410532      0.00000006073363
  H          -2.19135839059490     -2.44565620750891      0.00000017087826