32
Coordinates from ORCA-job orca E -619.042301256518
  C          -1.32356783082168     -3.27717265365014     -0.29981878822403
  C          -2.26681676453115     -2.31036584643880     -0.37727307122099
  C          -2.31037230890724      2.26681220410199      0.37732036182758
  C          -3.27717816619028      1.32356115724407      0.29986357249141
  C           3.27716199047825     -1.32357557206506      0.29987796254348
  C           2.31035543124125     -2.26682420269601      0.37733064510857
  C           2.26680644482194      2.31035098870632     -0.37726620738970
  C           1.32355924258551      3.27716101986686     -0.29980539828934
  C           0.06371967731602     -3.19864778793757      0.11811331717666
  C           3.19863802060121      0.06371213716802     -0.11805776352158
  C           2.17310619086725      0.93058994060290      0.03087528640909
  C           0.93060066521655     -2.17312161672208     -0.03083008512219
  C          -3.19865149043029     -0.06372997379985     -0.11805820712828
  C          -2.17311466010691     -0.93060443904475      0.03086884391020
  C          -0.93061185280545      2.17311260963363     -0.03082453638576
  C          -0.06373078426333      3.19864029318044      0.11811979569021
  H          -1.65064218917058     -4.27943587720485     -0.55903503473281
  H          -3.24043926836901     -2.61358257045436     -0.75067284463037
  H          -2.61359163006657      3.24043234041602      0.75072178949149
  H          -4.27944191709218      1.65063499605950      0.55908236758391
  H           4.27942306306192     -1.65064535184349      0.55911082772607
  H           2.61356346718239     -3.24044330655224      0.75074423042572
  H           3.24042827676145      2.61356539096008     -0.75067048319576
  H           1.65063464329641      4.27942650304297     -0.55901545829891
  H           0.45709541807459     -4.11353640474518      0.55558420552933
  H           4.11353299487670      0.45709365732911     -0.55551507087287
  H           0.60971368700334     -1.27010642763952     -0.53272186592663
  H          -4.11354889067206     -0.45711663003116     -0.55550298741494
  H           1.27008283836611      0.60969112006132      0.53274232493180
  H          -0.60971785616647      1.27009680377768     -0.53270865758366
  H          -1.27009031819455     -0.60970636205116      0.53273723657230
  H          -0.45710612396313      4.11353386072532      0.55558369252000