9
Coordinates from ORCA-job orca E -832.226013397290
  C          -6.76469214966502      0.12134721842161     -0.01868147669210
  C          -6.56746269682005     -1.36419847596872     -0.01247231854139
  C          -5.81909504128919      1.08886519073089     -0.02148990882505
  C          -5.40215853918465     -2.05146144445990     -0.00846843326698
  Ca         -3.95113550536062     -0.26082578654497     -0.01428100760331
  H          -7.82547081622461      0.38890613155744     -0.02096477175870
  H          -6.20342353923658      2.10720543293995     -0.02602917661242
  H          -7.52177864165982     -1.89910596685237     -0.01132182154268
  H          -5.50751307055942     -3.13481229982394     -0.00418108515738
