14
Coordinates from ORCA-job orca E -308.228325735422
  C          -6.73015104532920      0.53107063239005      0.10891603018093
  C          -6.47297472785261     -0.90894338302496      0.03825805119906
  C          -5.51427952293227      1.16108576577287      0.01781028654625
  C          -4.46944484158133      0.15466047326407      0.02956564427654
  C          -5.14673678858101     -1.11085014523896     -0.04449961823453
  C          -3.15532307248389      0.46088627124405      0.06054701526755
  C          -1.97321117261519      1.24271914404386     -0.01328110202594
  C          -1.84606733446787     -0.08855967635419      0.02765518846243
  H          -1.50359663808349      2.20531797213871     -0.06004929423022
  H          -1.20412486212652     -0.94698696832092      0.03378231701368
  H          -7.69598984934400      0.99113616286582      0.14712040327933
  H          -7.21689180835549     -1.66651352872128     -0.05931750922486
  H          -4.63980413710785     -2.04794676329483     -0.23383065715820
  H          -5.32971419913914      2.23517404323568     -0.05267675535202