5
Coordinates from ORCA-job orca E -152.457664277916
  C          -3.80998932417295     -0.94529632768032      0.00000989368641
  C          -2.55124339017516     -0.88952925494686     -0.00000060771672
  O          -3.24086992034708      0.44001145116216     -0.00000023319475
  H          -4.81038170734164     -1.32320517079684      0.00002061574543
  H          -1.52134565796317     -1.17746069773813     -0.00000966852036