9
Coordinates from ORCA-job orca E -185.323836856678
  C          -7.09997677554499      0.81701755184144     -0.06601698987870
  C          -7.24447796532354     -0.60018883163560     -0.06610653847973
  C          -5.90749869593573      1.41048129214929      0.26531844031018
  C          -6.19639755799153     -1.42215045556110      0.26531131692857
  H          -8.21477581736209     -1.01159657255028     -0.35679866505365
  H          -7.96730651597165      1.41583332224528     -0.35655295863743
  Sr         -4.08365575250528     -0.20550913189572     -0.71813567033009
  H          -6.40833835019037     -2.46167754777138      0.51663781012187
  H          -5.90533256917475      2.47148037317807      0.51634325501900
